File C:\TFS\Regression Tester\Main\DLLs\MPT.Tools\MPT.CSI\API\MPT.CSI.API.EndToEndTests\Resources\Query.$2k was saved on 10/21/17 at 0:39:10
 
TABLE:  "ACTIVE DEGREES OF FREEDOM"
   UX=Yes   UY=Yes   UZ=Yes   RX=Yes   RY=Yes   RZ=Yes
 
TABLE:  "ANALYSIS OPTIONS"
   Solver=Advanced   SolverProc=Auto   Force32Bit=No   StiffCase=None   GeomMod=No
 
TABLE:  "AUTO WAVE 3 - WAVE CHARACTERISTICS - GENERAL"
   WaveChar=Default   WaveType="From Theory"   KinFactor=1   SWaterDepth=1800   WaveHeight=720   WavePeriod=12   WaveTheory=Linear
 
TABLE:  "CASE - MODAL 1 - GENERAL"
   Case=MODAL   ModeType=Eigen   MaxNumModes=12   MinNumModes=1   EigenShift=0   EigenCutoff=0   EigenTol=1E-09   AutoShift=Yes
 
TABLE:  "CASE - STATIC 1 - LOAD ASSIGNMENTS"
   Case=DEAD   LoadType="Load pattern"   LoadName=DEAD   LoadSF=1
 
TABLE:  "CONNECTIVITY - FRAME"
   Frame=1   JointI=1   JointJ=2   IsCurved=No
   Frame=2   JointI=2   JointJ=3   IsCurved=No
   Frame=3   JointI=4   JointJ=5   IsCurved=No
   Frame=4   JointI=5   JointJ=6   IsCurved=No
   Frame=5   JointI=7   JointJ=8   IsCurved=No
   Frame=6   JointI=8   JointJ=9   IsCurved=No
   Frame=7   JointI=10   JointJ=11   IsCurved=No
   Frame=8   JointI=11   JointJ=12   IsCurved=No
   Frame=9   JointI=13   JointJ=14   IsCurved=No
   Frame=10   JointI=14   JointJ=15   IsCurved=No
   Frame=11   JointI=16   JointJ=17   IsCurved=No
   Frame=12   JointI=17   JointJ=18   IsCurved=No
   Frame=13   JointI=19   JointJ=20   IsCurved=No
   Frame=14   JointI=20   JointJ=21   IsCurved=No
   Frame=15   JointI=22   JointJ=23   IsCurved=No
   Frame=16   JointI=23   JointJ=24   IsCurved=No
   Frame=17   JointI=25   JointJ=26   IsCurved=No
   Frame=18   JointI=26   JointJ=27   IsCurved=No
   Frame=19   JointI=28   JointJ=29   IsCurved=No
   Frame=20   JointI=29   JointJ=30   IsCurved=No
# ... 38 like lines cut
 
TABLE:  "COORDINATE SYSTEMS"
   Name=GLOBAL   Type=Cartesian   X=0   Y=0   Z=0   AboutZ=0   AboutY=0   AboutX=0
   Name=CSYS1   Type=Cartesian   X=0   Y=0   Z=0   AboutZ=0   AboutY=0   AboutX=0
 
TABLE:  "DATABASE DOCUMENTATION"
 
TABLE:  "DATABASE FORMAT TYPES"
   UnitsCurr=Yes   OverrideE=No
 
TABLE:  "FRAME AUTO MESH ASSIGNMENTS"
   Frame=1   AutoMesh=Yes   AtJoints=Yes   AtFrames=No   NumSegments=0   MaxLength=0   MaxDegrees=0
   Frame=2   AutoMesh=Yes   AtJoints=Yes   AtFrames=No   NumSegments=0   MaxLength=0   MaxDegrees=0
   Frame=3   AutoMesh=Yes   AtJoints=Yes   AtFrames=No   NumSegments=0   MaxLength=0   MaxDegrees=0
   Frame=4   AutoMesh=Yes   AtJoints=Yes   AtFrames=No   NumSegments=0   MaxLength=0   MaxDegrees=0
   Frame=5   AutoMesh=Yes   AtJoints=Yes   AtFrames=No   NumSegments=0   MaxLength=0   MaxDegrees=0
   Frame=6   AutoMesh=Yes   AtJoints=Yes   AtFrames=No   NumSegments=0   MaxLength=0   MaxDegrees=0
   Frame=7   AutoMesh=Yes   AtJoints=Yes   AtFrames=No   NumSegments=0   MaxLength=0   MaxDegrees=0
   Frame=8   AutoMesh=Yes   AtJoints=Yes   AtFrames=No   NumSegments=0   MaxLength=0   MaxDegrees=0
   Frame=9   AutoMesh=Yes   AtJoints=Yes   AtFrames=No   NumSegments=0   MaxLength=0   MaxDegrees=0
   Frame=10   AutoMesh=Yes   AtJoints=Yes   AtFrames=No   NumSegments=0   MaxLength=0   MaxDegrees=0
   Frame=11   AutoMesh=Yes   AtJoints=Yes   AtFrames=No   NumSegments=0   MaxLength=0   MaxDegrees=0
   Frame=12   AutoMesh=Yes   AtJoints=Yes   AtFrames=No   NumSegments=0   MaxLength=0   MaxDegrees=0
   Frame=13   AutoMesh=Yes   AtJoints=Yes   AtFrames=No   NumSegments=0   MaxLength=0   MaxDegrees=0
   Frame=14   AutoMesh=Yes   AtJoints=Yes   AtFrames=No   NumSegments=0   MaxLength=0   MaxDegrees=0
   Frame=15   AutoMesh=Yes   AtJoints=Yes   AtFrames=No   NumSegments=0   MaxLength=0   MaxDegrees=0
   Frame=16   AutoMesh=Yes   AtJoints=Yes   AtFrames=No   NumSegments=0   MaxLength=0   MaxDegrees=0
   Frame=17   AutoMesh=Yes   AtJoints=Yes   AtFrames=No   NumSegments=0   MaxLength=0   MaxDegrees=0
   Frame=18   AutoMesh=Yes   AtJoints=Yes   AtFrames=No   NumSegments=0   MaxLength=0   MaxDegrees=0
   Frame=19   AutoMesh=Yes   AtJoints=Yes   AtFrames=No   NumSegments=0   MaxLength=0   MaxDegrees=0
   Frame=20   AutoMesh=Yes   AtJoints=Yes   AtFrames=No   NumSegments=0   MaxLength=0   MaxDegrees=0
# ... 38 like lines cut
 
TABLE:  "FRAME DESIGN PROCEDURES"
   Frame=1   DesignProc="From Material"
   Frame=2   DesignProc="From Material"
   Frame=3   DesignProc="From Material"
   Frame=4   DesignProc="From Material"
   Frame=5   DesignProc="From Material"
   Frame=6   DesignProc="From Material"
   Frame=7   DesignProc="From Material"
   Frame=8   DesignProc="From Material"
   Frame=9   DesignProc="From Material"
   Frame=10   DesignProc="From Material"
   Frame=11   DesignProc="From Material"
   Frame=12   DesignProc="From Material"
   Frame=13   DesignProc="From Material"
   Frame=14   DesignProc="From Material"
   Frame=15   DesignProc="From Material"
   Frame=16   DesignProc="From Material"
   Frame=17   DesignProc="From Material"
   Frame=18   DesignProc="From Material"
   Frame=19   DesignProc="From Material"
   Frame=20   DesignProc="From Material"
# ... 38 like lines cut
 
TABLE:  "FRAME LOAD TRANSFER OPTIONS"
   Frame=1   Transfer=Yes
   Frame=2   Transfer=Yes
   Frame=3   Transfer=Yes
   Frame=4   Transfer=Yes
   Frame=5   Transfer=Yes
   Frame=6   Transfer=Yes
   Frame=7   Transfer=Yes
   Frame=8   Transfer=Yes
   Frame=9   Transfer=Yes
   Frame=10   Transfer=Yes
   Frame=11   Transfer=Yes
   Frame=12   Transfer=Yes
   Frame=13   Transfer=Yes
   Frame=14   Transfer=Yes
   Frame=15   Transfer=Yes
   Frame=16   Transfer=Yes
   Frame=17   Transfer=Yes
   Frame=18   Transfer=Yes
   Frame=19   Transfer=Yes
   Frame=20   Transfer=Yes
# ... 38 like lines cut
 
TABLE:  "FRAME OUTPUT STATION ASSIGNMENTS"
   Frame=1   StationType=MinNumSta   MinNumSta=3   AddAtElmInt=Yes   AddAtPtLoad=Yes
   Frame=2   StationType=MinNumSta   MinNumSta=3   AddAtElmInt=Yes   AddAtPtLoad=Yes
   Frame=3   StationType=MinNumSta   MinNumSta=3   AddAtElmInt=Yes   AddAtPtLoad=Yes
   Frame=4   StationType=MinNumSta   MinNumSta=3   AddAtElmInt=Yes   AddAtPtLoad=Yes
   Frame=5   StationType=MinNumSta   MinNumSta=3   AddAtElmInt=Yes   AddAtPtLoad=Yes
   Frame=6   StationType=MinNumSta   MinNumSta=3   AddAtElmInt=Yes   AddAtPtLoad=Yes
   Frame=7   StationType=MinNumSta   MinNumSta=3   AddAtElmInt=Yes   AddAtPtLoad=Yes
   Frame=8   StationType=MinNumSta   MinNumSta=3   AddAtElmInt=Yes   AddAtPtLoad=Yes
   Frame=9   StationType=MinNumSta   MinNumSta=3   AddAtElmInt=Yes   AddAtPtLoad=Yes
   Frame=10   StationType=MinNumSta   MinNumSta=3   AddAtElmInt=Yes   AddAtPtLoad=Yes
   Frame=11   StationType=MinNumSta   MinNumSta=3   AddAtElmInt=Yes   AddAtPtLoad=Yes
   Frame=12   StationType=MinNumSta   MinNumSta=3   AddAtElmInt=Yes   AddAtPtLoad=Yes
   Frame=13   StationType=MinNumSta   MinNumSta=3   AddAtElmInt=Yes   AddAtPtLoad=Yes
   Frame=14   StationType=MinNumSta   MinNumSta=3   AddAtElmInt=Yes   AddAtPtLoad=Yes
   Frame=15   StationType=MinNumSta   MinNumSta=3   AddAtElmInt=Yes   AddAtPtLoad=Yes
   Frame=16   StationType=MinNumSta   MinNumSta=3   AddAtElmInt=Yes   AddAtPtLoad=Yes
   Frame=17   StationType=MinNumSta   MinNumSta=3   AddAtElmInt=Yes   AddAtPtLoad=Yes
   Frame=18   StationType=MinNumSta   MinNumSta=3   AddAtElmInt=Yes   AddAtPtLoad=Yes
   Frame=19   StationType=MinNumSta   MinNumSta=3   AddAtElmInt=Yes   AddAtPtLoad=Yes
   Frame=20   StationType=MinNumSta   MinNumSta=3   AddAtElmInt=Yes   AddAtPtLoad=Yes
# ... 4 like lines cut
   Frame=25   StationType=MaxStaSpcg   MaxStaSpcg=24   AddAtElmInt=Yes   AddAtPtLoad=Yes
   Frame=26   StationType=MaxStaSpcg   MaxStaSpcg=24   AddAtElmInt=Yes   AddAtPtLoad=Yes
   Frame=27   StationType=MaxStaSpcg   MaxStaSpcg=24   AddAtElmInt=Yes   AddAtPtLoad=Yes
   Frame=28   StationType=MaxStaSpcg   MaxStaSpcg=24   AddAtElmInt=Yes   AddAtPtLoad=Yes
   Frame=29   StationType=MaxStaSpcg   MaxStaSpcg=24   AddAtElmInt=Yes   AddAtPtLoad=Yes
   Frame=30   StationType=MaxStaSpcg   MaxStaSpcg=24   AddAtElmInt=Yes   AddAtPtLoad=Yes
   Frame=31   StationType=MaxStaSpcg   MaxStaSpcg=24   AddAtElmInt=Yes   AddAtPtLoad=Yes
   Frame=32   StationType=MaxStaSpcg   MaxStaSpcg=24   AddAtElmInt=Yes   AddAtPtLoad=Yes
   Frame=33   StationType=MaxStaSpcg   MaxStaSpcg=24   AddAtElmInt=Yes   AddAtPtLoad=Yes
   Frame=34   StationType=MaxStaSpcg   MaxStaSpcg=24   AddAtElmInt=Yes   AddAtPtLoad=Yes
   Frame=35   StationType=MaxStaSpcg   MaxStaSpcg=24   AddAtElmInt=Yes   AddAtPtLoad=Yes
   Frame=36   StationType=MaxStaSpcg   MaxStaSpcg=24   AddAtElmInt=Yes   AddAtPtLoad=Yes
   Frame=37   StationType=MaxStaSpcg   MaxStaSpcg=24   AddAtElmInt=Yes   AddAtPtLoad=Yes
   Frame=38   StationType=MaxStaSpcg   MaxStaSpcg=24   AddAtElmInt=Yes   AddAtPtLoad=Yes
   Frame=39   StationType=MaxStaSpcg   MaxStaSpcg=24   AddAtElmInt=Yes   AddAtPtLoad=Yes
   Frame=40   StationType=MaxStaSpcg   MaxStaSpcg=24   AddAtElmInt=Yes   AddAtPtLoad=Yes
   Frame=41   StationType=MaxStaSpcg   MaxStaSpcg=24   AddAtElmInt=Yes   AddAtPtLoad=Yes
   Frame=42   StationType=MaxStaSpcg   MaxStaSpcg=24   AddAtElmInt=Yes   AddAtPtLoad=Yes
   Frame=43   StationType=MaxStaSpcg   MaxStaSpcg=24   AddAtElmInt=Yes   AddAtPtLoad=Yes
   Frame=44   StationType=MaxStaSpcg   MaxStaSpcg=24   AddAtElmInt=Yes   AddAtPtLoad=Yes
# ... 14 like lines cut
 
TABLE:  "FRAME SECTION ASSIGNMENTS"
   Frame=1   AutoSelect=N.A.   AnalSect=FSEC1   MatProp=Default
   Frame=2   AutoSelect=N.A.   AnalSect=FSEC1   MatProp=Default
   Frame=3   AutoSelect=N.A.   AnalSect=FSEC1   MatProp=Default
   Frame=4   AutoSelect=N.A.   AnalSect=FSEC1   MatProp=Default
   Frame=5   AutoSelect=N.A.   AnalSect=FSEC1   MatProp=Default
   Frame=6   AutoSelect=N.A.   AnalSect=FSEC1   MatProp=Default
   Frame=7   AutoSelect=N.A.   AnalSect=FSEC1   MatProp=Default
   Frame=8   AutoSelect=N.A.   AnalSect=FSEC1   MatProp=Default
   Frame=9   AutoSelect=N.A.   AnalSect=FSEC1   MatProp=Default
   Frame=10   AutoSelect=N.A.   AnalSect=FSEC1   MatProp=Default
   Frame=11   AutoSelect=N.A.   AnalSect=FSEC1   MatProp=Default
   Frame=12   AutoSelect=N.A.   AnalSect=FSEC1   MatProp=Default
   Frame=13   AutoSelect=N.A.   AnalSect=FSEC1   MatProp=Default
   Frame=14   AutoSelect=N.A.   AnalSect=FSEC1   MatProp=Default
   Frame=15   AutoSelect=N.A.   AnalSect=FSEC1   MatProp=Default
   Frame=16   AutoSelect=N.A.   AnalSect=FSEC1   MatProp=Default
   Frame=17   AutoSelect=N.A.   AnalSect=FSEC1   MatProp=Default
   Frame=18   AutoSelect=N.A.   AnalSect=FSEC1   MatProp=Default
   Frame=19   AutoSelect=N.A.   AnalSect=FSEC1   MatProp=Default
   Frame=20   AutoSelect=N.A.   AnalSect=FSEC1   MatProp=Default
# ... 38 like lines cut
 
TABLE:  "FRAME SECTION PROPERTIES 01 - GENERAL"
   SectionName=FSEC1   Material=A992Fy50   Shape="I/Wide Flange"   t3=12   t2=5   tf=0.38   tw=0.25   t2b=5   tfb=0.38   Area=6.61   TorsConst=0.231870449633333   I33=157.902961333333   I22=7.93130208333333   I23=0   AS2=3 _
        AS3=3.16666666666667   S33=26.3171602222222   S22=3.17252083333333   Z33=29.9741   Z22=4.925625   R33=4.88758595009503   R22=1.09539692122433   Color=Cyan   FromFile=No   AMod=1   A2Mod=1   A3Mod=1   JMod=1   I2Mod=1   I3Mod=1 _
        MMod=1   WMod=1   Notes="Added 10/21/2017 12:16:40 AM"
 
TABLE:  "FRAME SECTION PROPERTIES 13 - TIME DEPENDENT"
   SectionName=FSEC1   TypeSize=Auto   AutoSFSize=1
 
TABLE:  "FUNCTION - PLOT FUNCTIONS"
   PlotFunc="Input Energy"   Type=Energy   Component=Input   Mode=All
 
TABLE:  "FUNCTION - POWER SPECTRAL DENSITY - USER"
   Name=UNIFPSD   Frequency=0   Value=1
   Name=UNIFPSD   Frequency=1   Value=1
 
TABLE:  "FUNCTION - RESPONSE SPECTRUM - USER"
   Name=UNIFRS   Period=0   Accel=1   FuncDamp=0.05
   Name=UNIFRS   Period=1   Accel=1
 
TABLE:  "FUNCTION - STEADY STATE - USER"
   Name=UNIFSS   Frequency=0   Value=1
   Name=UNIFSS   Frequency=1   Value=1
 
TABLE:  "FUNCTION - TIME HISTORY - USER"
   Name=RAMPTH   Time=0   Value=0
   Name=RAMPTH   Time=1   Value=1
   Name=RAMPTH   Time=4   Value=1
   Name=UNIFTH   Time=0   Value=1
   Name=UNIFTH   Time=1   Value=1
 
TABLE:  "GRID LINES"
   CoordSys=GLOBAL   AxisDir=X   GridID=A   XRYZCoord=-432   LineType=Primary   LineColor=Gray8Dark   Visible=Yes   BubbleLoc=End   AllVisible=Yes   BubbleSize=60
   CoordSys=GLOBAL   AxisDir=X   GridID=B   XRYZCoord=-144   LineType=Primary   LineColor=Gray8Dark   Visible=Yes   BubbleLoc=End
   CoordSys=GLOBAL   AxisDir=X   GridID=C   XRYZCoord=144   LineType=Primary   LineColor=Gray8Dark   Visible=Yes   BubbleLoc=End
   CoordSys=GLOBAL   AxisDir=X   GridID=D   XRYZCoord=432   LineType=Primary   LineColor=Gray8Dark   Visible=Yes   BubbleLoc=End
   CoordSys=GLOBAL   AxisDir=Y   GridID=1   XRYZCoord=-288   LineType=Primary   LineColor=Gray8Dark   Visible=Yes   BubbleLoc=Start
   CoordSys=GLOBAL   AxisDir=Y   GridID=2   XRYZCoord=0   LineType=Primary   LineColor=Gray8Dark   Visible=Yes   BubbleLoc=Start
   CoordSys=GLOBAL   AxisDir=Y   GridID=3   XRYZCoord=288   LineType=Primary   LineColor=Gray8Dark   Visible=Yes   BubbleLoc=Start
   CoordSys=GLOBAL   AxisDir=Z   GridID=Z1   XRYZCoord=0   LineType=Primary   LineColor=Gray8Dark   Visible=Yes   BubbleLoc=End
   CoordSys=GLOBAL   AxisDir=Z   GridID=Z2   XRYZCoord=144   LineType=Primary   LineColor=Gray8Dark   Visible=Yes   BubbleLoc=End
   CoordSys=GLOBAL   AxisDir=Z   GridID=Z3   XRYZCoord=288   LineType=Primary   LineColor=Gray8Dark   Visible=Yes   BubbleLoc=End
   CoordSys=CSYS1   AxisDir=X   GridID=A   XRYZCoord=0   LineType=Primary   LineColor=Gray8Dark   Visible=Yes   BubbleLoc=End   AllVisible=Yes   BubbleSize=60
   CoordSys=CSYS1   AxisDir=X   GridID=B   XRYZCoord=288   LineType=Primary   LineColor=Gray8Dark   Visible=Yes   BubbleLoc=End
   CoordSys=CSYS1   AxisDir=X   GridID=C   XRYZCoord=576   LineType=Primary   LineColor=Gray8Dark   Visible=Yes   BubbleLoc=End
   CoordSys=CSYS1   AxisDir=X   GridID=D   XRYZCoord=864   LineType=Primary   LineColor=Gray8Dark   Visible=Yes   BubbleLoc=End
   CoordSys=CSYS1   AxisDir=Y   GridID=1   XRYZCoord=0   LineType=Primary   LineColor=Gray8Dark   Visible=Yes   BubbleLoc=Start
   CoordSys=CSYS1   AxisDir=Y   GridID=2   XRYZCoord=288   LineType=Primary   LineColor=Gray8Dark   Visible=Yes   BubbleLoc=Start
   CoordSys=CSYS1   AxisDir=Y   GridID=3   XRYZCoord=576   LineType=Primary   LineColor=Gray8Dark   Visible=Yes   BubbleLoc=Start
   CoordSys=CSYS1   AxisDir=Y   GridID=4   XRYZCoord=864   LineType=Primary   LineColor=Gray8Dark   Visible=Yes   BubbleLoc=Start
   CoordSys=CSYS1   AxisDir=Z   GridID=Z1   XRYZCoord=0   LineType=Primary   LineColor=Gray8Dark   Visible=Yes   BubbleLoc=End
   CoordSys=CSYS1   AxisDir=Z   GridID=Z2   XRYZCoord=144   LineType=Primary   LineColor=Gray8Dark   Visible=Yes   BubbleLoc=End
   CoordSys=CSYS1   AxisDir=Z   GridID=Z3   XRYZCoord=288   LineType=Primary   LineColor=Gray8Dark   Visible=Yes   BubbleLoc=End
   CoordSys=CSYS1   AxisDir=Z   GridID=Z4   XRYZCoord=432   LineType=Primary   LineColor=Gray8Dark   Visible=Yes   BubbleLoc=End
   CoordSys=CSYS1   AxisDir=Z   GridID=Z5   XRYZCoord=576   LineType=Primary   LineColor=Gray8Dark   Visible=Yes   BubbleLoc=End
 
TABLE:  "GROUPS 1 - DEFINITIONS"
   GroupName=ALL   Selection=Yes   SectionCut=Yes   Steel=Yes   Concrete=Yes   Aluminum=Yes   ColdFormed=Yes   Stage=Yes   Bridge=Yes   AutoSeismic=No   AutoWind=No   SelDesSteel=No   SelDesAlum=No   SelDesCold=No   MassWeight=Yes   Color=Red
 
TABLE:  "JOINT COORDINATES"
   Joint=1   CoordSys=GLOBAL   CoordType=Cartesian   XorR=-432   Y=-288   Z=0   SpecialJt=No
   Joint=2   CoordSys=GLOBAL   CoordType=Cartesian   XorR=-432   Y=-288   Z=144   SpecialJt=No
   Joint=3   CoordSys=GLOBAL   CoordType=Cartesian   XorR=-432   Y=-288   Z=288   SpecialJt=No
   Joint=4   CoordSys=GLOBAL   CoordType=Cartesian   XorR=-432   Y=0   Z=0   SpecialJt=No
   Joint=5   CoordSys=GLOBAL   CoordType=Cartesian   XorR=-432   Y=0   Z=144   SpecialJt=No
   Joint=6   CoordSys=GLOBAL   CoordType=Cartesian   XorR=-432   Y=0   Z=288   SpecialJt=No
   Joint=7   CoordSys=GLOBAL   CoordType=Cartesian   XorR=-432   Y=288   Z=0   SpecialJt=No
   Joint=8   CoordSys=GLOBAL   CoordType=Cartesian   XorR=-432   Y=288   Z=144   SpecialJt=No
   Joint=9   CoordSys=GLOBAL   CoordType=Cartesian   XorR=-432   Y=288   Z=288   SpecialJt=No
   Joint=10   CoordSys=GLOBAL   CoordType=Cartesian   XorR=-144   Y=-288   Z=0   SpecialJt=No
   Joint=11   CoordSys=GLOBAL   CoordType=Cartesian   XorR=-144   Y=-288   Z=144   SpecialJt=No
   Joint=12   CoordSys=GLOBAL   CoordType=Cartesian   XorR=-144   Y=-288   Z=288   SpecialJt=No
   Joint=13   CoordSys=GLOBAL   CoordType=Cartesian   XorR=-144   Y=0   Z=0   SpecialJt=No
   Joint=14   CoordSys=GLOBAL   CoordType=Cartesian   XorR=-144   Y=0   Z=144   SpecialJt=No
   Joint=15   CoordSys=GLOBAL   CoordType=Cartesian   XorR=-144   Y=0   Z=288   SpecialJt=No
   Joint=16   CoordSys=GLOBAL   CoordType=Cartesian   XorR=-144   Y=288   Z=0   SpecialJt=No
   Joint=17   CoordSys=GLOBAL   CoordType=Cartesian   XorR=-144   Y=288   Z=144   SpecialJt=No
   Joint=18   CoordSys=GLOBAL   CoordType=Cartesian   XorR=-144   Y=288   Z=288   SpecialJt=No
   Joint=19   CoordSys=GLOBAL   CoordType=Cartesian   XorR=144   Y=-288   Z=0   SpecialJt=No
   Joint=20   CoordSys=GLOBAL   CoordType=Cartesian   XorR=144   Y=-288   Z=144   SpecialJt=No
# ... 16 like lines cut
 
TABLE:  "JOINT PATTERN DEFINITIONS"
   Pattern=Default
 
TABLE:  "JOINT RESTRAINT ASSIGNMENTS"
   Joint=1   U1=Yes   U2=Yes   U3=Yes   R1=No   R2=No   R3=No
   Joint=4   U1=Yes   U2=Yes   U3=Yes   R1=No   R2=No   R3=No
   Joint=7   U1=Yes   U2=Yes   U3=Yes   R1=No   R2=No   R3=No
   Joint=10   U1=Yes   U2=Yes   U3=Yes   R1=No   R2=No   R3=No
   Joint=13   U1=Yes   U2=Yes   U3=Yes   R1=No   R2=No   R3=No
   Joint=16   U1=Yes   U2=Yes   U3=Yes   R1=No   R2=No   R3=No
   Joint=19   U1=Yes   U2=Yes   U3=Yes   R1=No   R2=No   R3=No
   Joint=22   U1=Yes   U2=Yes   U3=Yes   R1=No   R2=No   R3=No
   Joint=25   U1=Yes   U2=Yes   U3=Yes   R1=No   R2=No   R3=No
   Joint=28   U1=Yes   U2=Yes   U3=Yes   R1=No   R2=No   R3=No
   Joint=31   U1=Yes   U2=Yes   U3=Yes   R1=No   R2=No   R3=No
   Joint=34   U1=Yes   U2=Yes   U3=Yes   R1=No   R2=No   R3=No
 
TABLE:  "LOAD CASE DEFINITIONS"
   Case=DEAD   Type=LinStatic   InitialCond=Zero   DesTypeOpt="Prog Det"   DesignType=DEAD   DesActOpt="Prog Det"   DesignAct=Non-Composite   AutoType=None   RunCase=Yes
   Case=MODAL   Type=LinModal   InitialCond=Zero   DesTypeOpt="Prog Det"   DesignType=OTHER   DesActOpt="Prog Det"   DesignAct=Other   AutoType=None   RunCase=Yes
 
TABLE:  "LOAD PATTERN DEFINITIONS"
   LoadPat=DEAD   DesignType=DEAD   SelfWtMult=1
 
TABLE:  "MASS SOURCE"
   MassSource=MSSSRC1   Elements=Yes   Masses=Yes   Loads=No   IsDefault=Yes
 
TABLE:  "MATERIAL PROPERTIES 01 - GENERAL"
   Material=4000Psi   Type=Concrete   SymType=Isotropic   TempDepend=No   Color=Red   Notes="Customary f'c 4000 psi 10/21/2017 12:16:25 AM"
   Material=A992Fy50   Type=Steel   SymType=Isotropic   TempDepend=No   Color=Cyan   Notes="ASTM A992 Grade 50 10/21/2017 12:16:25 AM"
 
TABLE:  "MATERIAL PROPERTIES 02 - BASIC MECHANICAL PROPERTIES"
   Material=4000Psi   UnitWeight=8.680555556E-05   UnitMass=2.248332521E-07   E1=3604.9965   G12=1502.081875   U12=0.2   A1=5.5E-06
   Material=A992Fy50   UnitWeight=0.000283564814814815   UnitMass=7.34455290352564E-07   E1=29000   G12=11153.8461538462   U12=0.3   A1=6.5E-06
 
TABLE:  "MATERIAL PROPERTIES 03A - STEEL DATA"
   Material=A992Fy50   Fy=50   Fu=65   EffFy=55   EffFu=71.5   SSCurveOpt=Simple   SSHysType=Kinematic   SHard=0.015   SMax=0.11   SRup=0.17   FinalSlope=-0.1
 
TABLE:  "MATERIAL PROPERTIES 03B - CONCRETE DATA"
   Material=4000Psi   Fc=4   LtWtConc=No   SSCurveOpt=Mander   SSHysType=Takeda   SFc=0.00221914   SCap=0.005   FinalSlope=-0.1   FAngle=0   DAngle=0
 
TABLE:  "MATERIAL PROPERTIES 06 - DAMPING PARAMETERS"
   Material=4000Psi   ModalRatio=0   VisMass=0   VisStiff=0   HysMass=0   HysStiff=0
   Material=A992Fy50   ModalRatio=0   VisMass=0   VisStiff=0   HysMass=0   HysStiff=0
 
TABLE:  "OPTIONS - COLORS - DISPLAY"
   DeviceType=Screen   Points=Blue   LinesFrame=Blue   LinesFrmDL=Blue   LinesCable=Green   LinesTendon=Green   SpringLinks=Green   Restraints=Green   Releases=Green   Axes=Cyan   Text=Black   ShadowLines=Gray8Dark   GuideLines=Gray8Dark _
        Highlight=Red   Selection=10504778   AreaFillBot=Red   AreaFillTop=16744703   AreaFillSd=Red   AreaEdge=DarkRed   SolidF1=Red   SolidF2=Blue   SolidF3=Green   SolidF4=Yellow   SolidF5=White   SolidF6=Cyan   SolidEdge=DarkRed _
        Floor=Gray4   Background=White   BGLowLeft=White   BGLowRight=White   BGUpRight=White   Darkness=0.5
   DeviceType=Printer   Points=Gray8Dark   LinesFrame=Black   LinesFrmDL=Gray4   LinesCable=Black   LinesTendon=Black   SpringLinks=Gray8Dark   Restraints=Gray8Dark   Releases=Gray4   Axes=Black   Text=Black   ShadowLines=Gray4 _
        GuideLines=Gray4   Highlight=Black   Selection=Black   AreaFillBot=Gray4   AreaFillTop=Gray8Dark   AreaFillSd=Gray4   AreaEdge=Black   SolidF1=Gray1Light   SolidF2=Gray2   SolidF3=Gray3   SolidF4=Gray4   SolidF5=Gray5 _
        SolidF6=Gray6   SolidEdge=Black   Floor=Gray4   Background=White   BGLowLeft=White   BGLowRight=White   BGUpRight=White   Darkness=0.5
   DeviceType="Color Printer"   Points=Blue   LinesFrame=Blue   LinesFrmDL=Blue   LinesCable=Green   LinesTendon=Green   SpringLinks=Green   Restraints=Green   Releases=Green   Axes=Cyan   Text=Black   ShadowLines=Gray8Dark _
        GuideLines=Gray8Dark   Highlight=Red   Selection=10504778   AreaFillBot=Red   AreaFillTop=16744703   AreaFillSd=Red   AreaEdge=DarkRed   SolidF1=Red   SolidF2=Blue   SolidF3=Green   SolidF4=Yellow   SolidF5=White   SolidF6=Cyan _
        SolidEdge=DarkRed   Floor=Gray4   Background=White   BGLowLeft=White   BGLowRight=White   BGUpRight=White   Darkness=0.5
 
TABLE:  "OPTIONS - COLORS - OUTPUT"
   DeviceType=Screen   Contour1=13107400   Contour2=6553828   Contour3=Red   Contour4=16639   Contour5=Orange   Contour6=43775   Contour7=54527   Contour8=Yellow   Contour9=65408   Contour10=Green   Contour11=8453888   Contour12=Cyan _
        Contour13=16755200   Contour14=16733440   Contour15=Blue   Transpare=0.5   Ratio1=Cyan   Ratio2=Green   Ratio3=Yellow   Ratio4=Orange   Ratio5=Red   RatioNotD=Gray4   RatioNotC=Red   RatioVal1=0.5   RatioVal2=0.7   RatioVal3=0.9 _
        RatioVal4=1   DFillPos=Blue   DFillNeg=Red   DFillRPos=Green   DFillRNeg=Green
   DeviceType=Printer   Contour1=Black   Contour2=3158064   Contour3=4210752   Contour4=5263440   Contour5=6316128   Contour6=7368816   Contour7=Gray8Dark   Contour8=Gray7   Contour9=Gray6   Contour10=Gray5   Contour11=Gray4 _
        Contour12=Gray3   Contour13=Gray2   Contour14=Gray1Light   Contour15=White   Transpare=0   Ratio1=Gray2   Ratio2=Gray4   Ratio3=Gray8Dark   Ratio4=4210752   Ratio5=Black   RatioNotD=Gray4   RatioNotC=Black   RatioVal1=0.5 _
        RatioVal2=0.7   RatioVal3=0.9   RatioVal4=1   DFillPos=Gray8Dark   DFillNeg=Gray8Dark   DFillRPos=4210752   DFillRNeg=4210752
   DeviceType="Color Printer"   Contour1=13107400   Contour2=6553828   Contour3=Red   Contour4=16639   Contour5=Orange   Contour6=43775   Contour7=54527   Contour8=Yellow   Contour9=65408   Contour10=Green   Contour11=8453888 _
        Contour12=Cyan   Contour13=16755200   Contour14=16733440   Contour15=Blue   Transpare=0   Ratio1=Cyan   Ratio2=Green   Ratio3=Yellow   Ratio4=Orange   Ratio5=Red   RatioNotD=Gray4   RatioNotC=Red   RatioVal1=0.5   RatioVal2=0.7 _
        RatioVal3=0.9   RatioVal4=1   DFillPos=Blue   DFillNeg=Red   DFillRPos=Green   DFillRNeg=Green
 
TABLE:  "PREFERENCES - ALUMINUM DESIGN - AA-ASD 2000"
   THDesign=Envelopes   FrameType="Moment Frame"   SRatioLimit=1   MaxIter=1   LatFact=1.33333333333333   UseLatFact=No   Bridge=No
 
TABLE:  "PREFERENCES - COLD FORMED DESIGN - AISI-ASD96"
   THDesign=Envelopes   FrameType="Braced Frame"   SRatioLimit=1   MaxIter=1   OmegaBS=1.67   OmegaBUS=1.67   OmegaBLTB=1.67   OmegaVS=1.67   OmegaVNS=1.5   OmegaT=1.67   OmegaC=1.8
 
TABLE:  "PREFERENCES - CONCRETE DESIGN - ACI 318-11"
   THDesign=Envelopes   NumCurves=24   NumPoints=11   MinEccen=Yes   PatLLF=0.75   UFLimit=0.95   SeisCat=D   PhiT=0.9   PhiCTied=0.65   PhiCSpiral=0.75   PhiV=0.75   PhiVSeismic=0.6   PhiVJoint=0.85
 
TABLE:  "PREFERENCES - DIMENSIONAL"
   MergeTol=0.1   FineGrid=12   Nudge=12   SelectTol=3   SnapTol=12   SLineThick=1   PLineThick=4   MaxFont=8   MinFont=3   AutoZoom=10   ShrinkFact=70   TextFileLen=240
 
TABLE:  "PREFERENCES - STEEL DESIGN - AISC 360-10"
   THDesign=Envelopes   FrameType=SMF   PatLLF=0.75   SRatioLimit=0.95   MaxIter=1   SDC=D   SeisCode=Yes   SeisLoad=Yes   ImpFactor=1   SystemRho=1   SystemSds=0.5   SystemR=8   SystemCd=5.5   Omega0=3   Provision=LRFD _
        AMethod="Direct Analysis"   SOMethod="General 2nd Order"   SRMethod="Tau-b Fixed"   NLCoeff=0.002   PhiB=0.9   PhiC=0.9   PhiTY=0.9   PhiTF=0.75   PhiV=0.9   PhiVRolledI=1   PhiVT=0.9   PlugWeld=Yes   HSSWelding=ERW   HSSReduceT=No _
        CheckDefl=No   DLRat=120   SDLAndLLRat=120   LLRat=360   TotalRat=240   NetRat=240
 
TABLE:  "PROGRAM CONTROL"
   ProgramName=SAP2000   Version=17.0.0   CurrUnits="Kip, in, F"   SteelCode="AISC 360-10"   ConcCode="ACI 318-11"   AlumCode="AA-ASD 2000"   ColdCode=AISI-ASD96   RegenHinge=Yes
 
TABLE:  "PROJECT INFORMATION"
   Item="Company Name"   Data="Computers and Structures, Inc."
   Item="Client Name"   Data=Foo
   Item="Project Name"   Data=Bar
   Item="Project Number"   Data=12345
   Item="Model Name"   Data=FooBar
   Item="Model Description"   Data="Bars of Foo"
   Item="Revision Number"   Data=54321
   Item="Frame Type"   Data=Marzipam
   Item=Engineer   Data=John
   Item=Checker   Data=Doe
   Item=Supervisor   Data=Lumberg
   Item="Issue Code"   Data=9876
   Item="Design Code"   Data=Magic
 
TABLE:  "REBAR SIZES"
   RebarID=#2   Area=0.05   Diameter=0.25
   RebarID=#3   Area=0.109999999403954   Diameter=0.375
   RebarID=#4   Area=0.200000002980232   Diameter=0.5
   RebarID=#5   Area=0.310000002384186   Diameter=0.625
   RebarID=#6   Area=0.439999997615814   Diameter=0.75
   RebarID=#7   Area=0.600000023841858   Diameter=0.875
   RebarID=#8   Area=0.790000021457672   Diameter=1
   RebarID=#9   Area=1   Diameter=1.12800002098083
   RebarID=#10   Area=1.26999998092651   Diameter=1.26999998092651
   RebarID=#11   Area=1.55999994277954   Diameter=1.4099999666214
   RebarID=#14   Area=2.25   Diameter=1.692999958992
   RebarID=#18   Area=4   Diameter=2.25699996948242
   RebarID=10M   Area=0.155000314116478   Diameter=0.444881916046143
   RebarID=15M   Area=0.310000628232956   Diameter=0.62992125749588
   RebarID=20M   Area=0.465000957250595   Diameter=0.767716526985168
   RebarID=25M   Area=0.775001585483551   Diameter=0.992126047611237
   RebarID=30M   Area=1.08500218391418   Diameter=1.17716538906097
   RebarID=35M   Area=1.5500031709671   Diameter=1.4055118560791
   RebarID=45M   Area=2.3250048160553   Diameter=1.72047245502472
   RebarID=55M   Area=3.87500786781311   Diameter=2.22047257423401
   RebarID=6d   Area=0.0438650883734226   Diameter=0.236220479011536
   RebarID=8d   Area=0.0779651552438736   Diameter=0.31496062874794
   RebarID=10d   Area=0.121675245463848   Diameter=0.393700778484344
   RebarID=12d   Area=0.175150364637375   Diameter=0.472440958023071
   RebarID=14d   Area=0.238700494170189   Diameter=0.551181137561798
   RebarID=16d   Area=0.31155064702034   Diameter=0.62992125749588
   RebarID=20d   Area=0.486700981855392   Diameter=0.787401556968689
   RebarID=25d   Area=0.761051535606384   Diameter=0.984251976013184
   RebarID=26d   Area=0.823051691055298   Diameter=1.02362203598022
   RebarID=28d   Area=0.954801976680756   Diameter=1.1023622751236
   RebarID=N12   Area=0.175150364637375   Diameter=0.472440958023071
   RebarID=N16   Area=0.31155064702034   Diameter=0.62992125749588
   RebarID=N20   Area=0.486700981855392   Diameter=0.787401556968689
   RebarID=N24   Area=0.7006014585495   Diameter=0.944881916046143
   RebarID=N28   Area=0.954801976680756   Diameter=1.1023622751236
   RebarID=N32   Area=1.24620258808136   Diameter=1.25984251499176
   RebarID=N36   Area=1.58100318908691   Diameter=1.41732287406921
 
END TABLE DATA
